LTspice 24.1.10 for Windows
Circuit: C:\Users\adamp\Desktop\PAF - Pearl's Auto Feeder\PAF-hw\PAF-hw_Electrical\LTSpice Simulations\Draft1.net
Start Time: Tue Nov  4 00:32:55 2025
solver = Normal
Maximum thread count: 16
tnom = 27
temp = 27
method = trap
.OP point found by inspection.
Total elapsed time: 0.928 seconds.

Files loaded:
C:\Users\adamp\Desktop\PAF - Pearl's Auto Feeder\PAF-hw\PAF-hw_Electrical\LTSpice Simulations\Draft1.net

