LTspice 24.1.10 for Windows
Circuit: C:\Users\adamp\Desktop\PAF - Pearl's Auto Feeder\PAF-hw\PAF-hw_Electrical\LTSpice Simulations\Draft4.net
Start Time: Tue Nov  4 17:15:54 2025
solver = Normal
Maximum thread count: 16
tnom = 27
temp = 27
method = trap
C:\Users\adamp\Desktop\PAF - Pearl's Auto Feeder\PAF-hw\PAF-hw_Electrical\LTSpice Simulations\Draft4.net(3): Limiting rise time to 1.25e-06.

V1 N001 0 PULSE(0 3.3 0 0 0 12.5u 50u 20000)
^^^^^^^^^^^^^^^^^^^^^^^^^^^^^^^^^^^^^^^^^^^^
C:\Users\adamp\Desktop\PAF - Pearl's Auto Feeder\PAF-hw\PAF-hw_Electrical\LTSpice Simulations\Draft4.net(3): Limiting fall time to 1.25e-06.

V1 N001 0 PULSE(0 3.3 0 0 0 12.5u 50u 20000)
^^^^^^^^^^^^^^^^^^^^^^^^^^^^^^^^^^^^^^^^^^^^
.OP point found by inspection.
Total elapsed time: 2.787 seconds.

Files loaded:
C:\Users\adamp\Desktop\PAF - Pearl's Auto Feeder\PAF-hw\PAF-hw_Electrical\LTSpice Simulations\Draft4.net

