LTspice 24.1.10 for Windows
Circuit: C:\Users\adamp\Desktop\PAF - Pearl's Auto Feeder\PAF-hw\PAF-hw_Electrical\LTSpice Simulations\Soft_Start_Circuit_V2.net
Start Time: Mon Nov  3 16:13:34 2025
solver = Normal
Maximum thread count: 16
tnom = 27
temp = 27
method = trap
.OP point found by inspection.
Total elapsed time: 0.935 seconds.

Files loaded:
C:\Users\adamp\Desktop\PAF - Pearl's Auto Feeder\PAF-hw\PAF-hw_Electrical\LTSpice Simulations\Soft_Start_Circuit_V2.net
C:\Users\adamp\AppData\Local\LTspice\lib\cmp\standard.mos

